8

  Ar    0.000000   0.000000   0.000000
  Ar    4.000000   0.000000   0.000000
  Ar    0.000000   4.100000   0.000000
  Ar    0.000000   0.000000   4.000000
  Ar    4.000000   4.000000   0.000000
  Ar    4.000000   0.000000   4.000000
  Ar    0.000000   4.000000   4.000000
  Ar    4.000000   4.000000   4.100000
